Version 4
SHEET 1 960 720
SYMBOL f 0 -128 R0
SYMATTR InstName FileType=CIR
SYMATTR Value 
FLAG 0 -128 
FLAG 0 -48 
SYMBOL voltage 192 -144 R0
SYMATTR InstName Version=10.01
SYMATTR Value 
FLAG 192 -128 
FLAG 192 -48 
TEXT 0 16 Left 2 !Program=Micro-Cap
SYMBOL cap 368 -128 R0
SYMATTR InstName Component
SYMATTR Value 
FLAG 384 -128 Version=10.00
FLAG 384 -64 
SYMBOL sw 576 -144 R0
SYMATTR InstName Shape
SYMATTR Value 
FLAG 576 -128 Version=10.01
FLAG 576 -48 
FLAG 528 -112 
FLAG 528 -64 
SYMBOL sw 768 -144 R0
SYMATTR InstName Screen=1920,1080
SYMATTR Value 
FLAG 768 -128 
FLAG 768 -48 
FLAG 720 -112 
FLAG 720 -64 
SYMBOL nmos 944 -144 R0
SYMATTR InstName MCAPVersion=10.0.4.0
SYMATTR Value 
FLAG 992 -144 
FLAG 944 -64 
FLAG 992 -48 
TEXT 0 48 Left 2 !Key ID=0
TEXT 0 80 Left 2 !NLCnt=79
SYMBOL tline 1152 -96 R0
SYMATTR InstName TXCnt=3
SYMATTR Value 
FLAG 1104 -112 
FLAG 1200 -112 
FLAG 1104 -80 
FLAG 1200 -80 
TEXT 0 112 Left 2 ![shapedef]
TEXT 0 144 Left 2 !Name=Battery
SYMBOL ind 1328 -144 R0
SYMATTR InstName Line=0,0,22,0
SYMATTR Value 
FLAG 1344 -128 
FLAG 1344 -48 
SYMBOL ind 1520 -144 R0
SYMATTR InstName Line=22,-3,22,3
SYMATTR Value 
FLAG 1536 -128 
FLAG 1536 -48 
SYMBOL ind 1712 -144 R0
SYMATTR InstName Line=26,-7,26,7
SYMATTR Value 
FLAG 1728 -128 
FLAG 1728 -48 
SYMBOL ind -16 -336 R0
SYMATTR InstName Line=26,0,48,0
SYMATTR Value 
FLAG 0 -320 
FLAG 0 -240 
SYMBOL cap 176 -320 R0
SYMATTR InstName Current=32,8,16,8
SYMATTR Value 
FLAG 192 -320 
FLAG 192 -256 
TEXT 0 176 Left 2 ![shapedef]
TEXT 0 208 Left 2 !Name=Bjt.root
SYMBOL ind 368 -336 R0
SYMATTR InstName Line=0,0,13,0
SYMATTR Value 
FLAG 384 -320 
FLAG 384 -240 
SYMBOL res 560 -336 R0
SYMATTR InstName Rectangle=13,-12,15,12
SYMATTR Value 
FLAG 576 -320 
FLAG 576 -240 
SYMBOL cap 752 -320 R0
SYMATTR InstName Current=32,-24,32,-16
SYMATTR Value 
FLAG 768 -320 
FLAG 768 -256 
SYMBOL cap 944 -320 R0
SYMATTR InstName Current=32,24,32,16
SYMATTR Value 
FLAG 960 -320 
FLAG 960 -256 
SYMBOL cap 1136 -320 R0
SYMATTR InstName Current=0,-8,8,-8
SYMATTR Value 
FLAG 1152 -320 
FLAG 1152 -256 
TEXT 0 240 Left 2 !PolyOpen=3
TEXT 0 272 Left 2 !PolyLine=24,-24
TEXT 0 304 Left 2 !PolyLine=24,-12
TEXT 0 336 Left 2 !PolyLine=14,-2
TEXT 0 368 Left 2 !PolyOpen=3
TEXT 0 400 Left 2 !PolyLine=24,24
TEXT 0 432 Left 2 !PolyLine=24,12
TEXT 0 464 Left 2 !PolyLine=14,2
TEXT 0 496 Left 2 ![shapedef]
TEXT 0 528 Left 2 !Name=Capacitor
SYMBOL ind 1328 -336 R0
SYMATTR InstName Line=0,0,22,0
SYMATTR Value 
FLAG 1344 -320 
FLAG 1344 -240 
SYMBOL ind 1520 -336 R0
SYMATTR InstName Line=22,-8,22,8
SYMATTR Value 
FLAG 1536 -320 
FLAG 1536 -240 
SYMBOL ind 1712 -336 R0
SYMATTR InstName Line=26,-8,26,8
SYMATTR Value 
FLAG 1728 -320 
FLAG 1728 -240 
SYMBOL ind -16 -528 R0
SYMATTR InstName Line=26,0,48,0
SYMATTR Value 
FLAG 0 -512 
FLAG 0 -432 
SYMBOL cap 176 -512 R0
SYMATTR InstName Current=32,12,16,12
SYMATTR Value 
FLAG 192 -512 
FLAG 192 -448 
TEXT 0 560 Left 2 ![shapedef]
TEXT 0 592 Left 2 !Name=Ground
SYMBOL ind 368 -528 R0
SYMATTR InstName Line=0,0,12,0
SYMATTR Value 
FLAG 384 -512 
FLAG 384 -432 
SYMBOL ind 560 -528 R0
SYMATTR InstName Line=12,-8,12,8
SYMATTR Value 
FLAG 576 -512 
FLAG 576 -432 
SYMBOL ind 752 -528 R0
SYMATTR InstName Line=18,-4,18,4
SYMATTR Value 
FLAG 768 -512 
FLAG 768 -432 
SYMBOL ind 944 -528 R0
SYMATTR InstName Line=24,0,24,0
SYMATTR Value 
FLAG 960 -512 
FLAG 960 -432 
TEXT 0 624 Left 2 ![shapedef]
TEXT 0 656 Left 2 !Name=NPN
SYMBOL res 1136 -528 R0
SYMATTR InstName Root="Bjt.root",0,0,0
SYMATTR Value 
FLAG 1152 -512 
FLAG 1152 -432 
TEXT 0 688 Left 2 !PolyClosed=3
TEXT 0 720 Left 2 !PolyLine=20,12
TEXT 0 752 Left 2 !PolyLine=24,12
TEXT 0 784 Left 2 !PolyLine=24,8
TEXT 0 816 Left 2 ![shapedef]
TEXT 0 848 Left 2 !Name=Plus.root
SYMBOL ind 1328 -528 R0
SYMATTR InstName Line=-2,0,2,0
SYMATTR Value 
FLAG 1344 -512 
FLAG 1344 -432 
SYMBOL ind 1520 -528 R0
SYMATTR InstName Line=0,-2,0,2
SYMATTR Value 
FLAG 1536 -512 
FLAG 1536 -432 
TEXT 0 880 Left 2 ![shapedef]
TEXT 0 912 Left 2 !Name=PNP
SYMBOL res 1712 -528 R0
SYMATTR InstName Root="Bjt.root",0,0,0
SYMATTR Value 
FLAG 1728 -512 
FLAG 1728 -432 
TEXT 0 944 Left 2 !PolyClosed=3
TEXT 0 976 Left 2 !PolyLine=17,-5
TEXT 0 1008 Left 2 !PolyLine=21,-5
TEXT 0 1040 Left 2 !PolyLine=17,-9
SYMBOL ind -16 -720 R0
SYMATTR InstName Line=16,-4,14,-2
SYMATTR Value 
FLAG 0 -704 
FLAG 0 -624 
SYMBOL ind 176 -720 R0
SYMATTR InstName Line=16,4,14,2
SYMATTR Value 
FLAG 192 -704 
FLAG 192 -624 
TEXT 0 1072 Left 2 ![shapedef]
TEXT 0 1104 Left 2 !Name=Resistor
TEXT 0 1136 Left 2 !PolyOpen=12
TEXT 0 1168 Left 2 !PolyLine=0,0
TEXT 0 1200 Left 2 !PolyLine=0,0
TEXT 0 1232 Left 2 !PolyLine=12,0
TEXT 0 1264 Left 2 !PolyLine=14,-4
TEXT 0 1296 Left 2 !PolyLine=18,4
TEXT 0 1328 Left 2 !PolyLine=22,-4
TEXT 0 1360 Left 2 !PolyLine=26,4
TEXT 0 1392 Left 2 !PolyLine=30,-4
TEXT 0 1424 Left 2 !PolyLine=34,4
TEXT 0 1456 Left 2 !PolyLine=36,0
TEXT 0 1488 Left 2 !PolyLine=48,0
TEXT 0 1520 Left 2 !PolyLine=48,0
SYMBOL cap 368 -704 R0
SYMATTR InstName Current=32,8,16,8
SYMATTR Value 
FLAG 384 -704 
FLAG 384 -640 
TEXT 0 1552 Left 2 ![shapedef]
TEXT 0 1584 Left 2 !Name=SPICE_V
SYMBOL res 560 -720 R0
SYMATTR InstName Root="Vsource.root",0,0,0
SYMATTR Value 
FLAG 576 -704 
FLAG 576 -624 
TEXT 0 1616 Left 2 ![shapedef]
TEXT 0 1648 Left 2 !Name=Vsource.root
SYMBOL ind 752 -720 R0
SYMATTR InstName Line=0,0,12,0
SYMATTR Value 
FLAG 768 -704 
FLAG 768 -624 
SYMBOL ind 944 -720 R0
SYMATTR InstName Line=36,0,48,0
SYMATTR Value 
FLAG 960 -704 
FLAG 960 -624 
SYMBOL e 1152 -720 R0
SYMATTR InstName Ellipse=12,-12,36,12
SYMATTR Value 
FLAG 1152 -704 
FLAG 1152 -624 
FLAG 1104 -688 
FLAG 1104 -640 
SYMBOL f 1344 -704 R0
SYMATTR InstName FColor=None
SYMATTR Value 
FLAG 1344 -704 
FLAG 1344 -624 
SYMBOL ind 1520 -720 R0
SYMATTR InstName Line=7,5,7,9
SYMATTR Value 
FLAG 1536 -704 
FLAG 1536 -624 
SYMBOL res 1712 -720 R0
SYMATTR InstName Root="Plus.root",41,7,0
SYMATTR Value 
FLAG 1728 -704 
FLAG 1728 -624 
SYMBOL cap -16 -896 R0
SYMATTR InstName Current=32,16,16,16
SYMATTR Value 
FLAG 0 -896 
FLAG 0 -832 
TEXT 0 1680 Left 2 ![compdef]
TEXT 0 1712 Left 2 !Name=Ground
SYMBOL diode 176 -896 R0
SYMATTR InstName Definition=Ground
SYMATTR Value 
FLAG 192 -896 
FLAG 192 -832 
SYMBOL sw 384 -912 R0
SYMATTR InstName Shape=Ground
SYMATTR Value 
FLAG 384 -896 
FLAG 384 -816 
FLAG 336 -880 
FLAG 336 -832 
SYMBOL nmos 560 -912 R0
SYMATTR InstName Mask=1793
SYMATTR Value 
FLAG 608 -912 
FLAG 560 -832 
FLAG 608 -816 
SYMBOL nmos 752 -912 R0
SYMATTR InstName memo=Ground
SYMATTR Value 
FLAG 800 -912 
FLAG 752 -832 
FLAG 800 -816 
SYMBOL ind 944 -912 R0
SYMATTR InstName Label
SYMATTR Value 
FLAG 960 -896 Offset=0,0,0,0
FLAG 960 -816 
TEXT 0 1744 Left 2 !PinCnt=1
TEXT 0 1776 Left 2 !Pin="PinA",0,0,-3,-7
TEXT 0 1808 Left 2 ![compdef]
TEXT 0 1840 Left 2 !Name=Voltage Source
SYMBOL diode 1136 -896 R0
SYMATTR InstName Definition=VSpice
SYMATTR Value 
FLAG 1152 -896 
FLAG 1152 -832 
SYMBOL sw 1344 -912 R0
SYMATTR InstName Shape=SPICE_V
SYMATTR Value 
FLAG 1344 -896 
FLAG 1344 -816 
FLAG 1296 -880 
FLAG 1296 -832 
SYMBOL nmos 1520 -912 R0
SYMATTR InstName Mask=4864
SYMATTR Value 
FLAG 1568 -912 
FLAG 1520 -832 
FLAG 1568 -816 
SYMBOL nmos 1712 -912 R0
SYMATTR InstName memo=Voltage
SYMATTR Value 
FLAG 1760 -912 Source
FLAG 1712 -832 
FLAG 1760 -816 
SYMBOL ind -16 -1104 R0
SYMATTR InstName Label
SYMATTR Value 
FLAG 0 -1088 Offset=19,13,15,13
FLAG 0 -1008 
TEXT 0 1872 Left 2 !PinCnt=2
TEXT 0 1904 Left 2 !Pin="Plus",6,0,-5,-6
TEXT 0 1936 Left 2 !Pin="Minus",0,0,-20,-6
TEXT 0 1968 Left 2 ![compdef]
TEXT 0 2000 Left 2 !Name=Capacitor
SYMBOL diode 176 -1088 R0
SYMATTR InstName Definition=Capacitor
SYMATTR Value 
FLAG 192 -1088 
FLAG 192 -1024 
SYMBOL sw 384 -1104 R0
SYMATTR InstName Shape=Capacitor
SYMATTR Value 
FLAG 384 -1088 
FLAG 384 -1008 
FLAG 336 -1072 
FLAG 336 -1024 
SYMBOL nmos 560 -1104 R0
SYMATTR InstName Mask=6913
SYMATTR Value 
FLAG 608 -1104 
FLAG 560 -1024 
FLAG 608 -1008 
SYMBOL nmos 752 -1104 R0
SYMATTR InstName memo=Capacitor
SYMATTR Value 
FLAG 800 -1104 
FLAG 752 -1024 
FLAG 800 -1008 
SYMBOL ind 944 -1104 R0
SYMATTR InstName Label
SYMATTR Value 
FLAG 960 -1088 Offset=16,12,12,12
FLAG 960 -1008 
TEXT 0 2032 Left 2 !PinCnt=2
TEXT 0 2064 Left 2 !Pin="Plus",6,0,-3,-5
TEXT 0 2096 Left 2 !Pin="Minus",0,0,-14,-5
TEXT 0 2128 Left 2 ![compdef]
TEXT 0 2160 Left 2 !Name=Resistor
SYMBOL diode 1136 -1088 R0
SYMATTR InstName Definition=Resistor
SYMATTR Value 
FLAG 1152 -1088 
FLAG 1152 -1024 
SYMBOL sw 1344 -1104 R0
SYMATTR InstName Shape=Resistor
SYMATTR Value 
FLAG 1344 -1088 
FLAG 1344 -1008 
FLAG 1296 -1072 
FLAG 1296 -1024 
SYMBOL nmos 1520 -1104 R0
SYMATTR InstName Mask=7169
SYMATTR Value 
FLAG 1568 -1104 
FLAG 1520 -1024 
FLAG 1568 -1008 
SYMBOL urc 1728 -1104 R0
SYMATTR InstName Used=1
SYMATTR Value 
FLAG 1744 -1088 
FLAG 1744 -1024 
FLAG 1712 -1056 
SYMBOL nmos -16 -1296 R0
SYMATTR InstName memo=Resistor
SYMATTR Value 
FLAG 32 -1296 
FLAG -16 -1216 
FLAG 32 -1200 
SYMBOL ind 176 -1296 R0
SYMATTR InstName Label
SYMATTR Value 
FLAG 192 -1280 Offset=18,6,8,11
FLAG 192 -1200 
TEXT 0 2192 Left 2 !PinCnt=2
TEXT 0 2224 Left 2 !Pin="Plus",6,0,-10,-4
TEXT 0 2256 Left 2 !Pin="Minus",0,0,-14,-4
TEXT 0 2288 Left 2 ![compdef]
TEXT 0 2320 Left 2 !Name=PNP
SYMBOL diode 368 -1280 R0
SYMATTR InstName Definition=PNP
SYMATTR Value 
FLAG 384 -1280 
FLAG 384 -1216 
SYMBOL sw 576 -1296 R0
SYMATTR InstName Shape=PNP
SYMATTR Value 
FLAG 576 -1280 
FLAG 576 -1200 
FLAG 528 -1264 
FLAG 528 -1216 
SYMBOL nmos 752 -1296 R0
SYMATTR InstName Mask=4609
SYMATTR Value 
FLAG 800 -1296 
FLAG 752 -1216 
FLAG 800 -1200 
SYMBOL nmos 944 -1296 R0
SYMATTR InstName memo=PNP
SYMATTR Value 
FLAG 992 -1296 Transistor
FLAG 944 -1216 
FLAG 992 -1200 
SYMBOL ind 1136 -1296 R0
SYMATTR InstName Label
SYMATTR Value 
FLAG 1152 -1280 Offset=37,-13,-8,35
FLAG 1152 -1200 
TEXT 0 2352 Left 2 !PinCnt=3
TEXT 0 2384 Left 2 !Pin="Collector",3,3,6,3
TEXT 0 2416 Left 2 !Pin="Base",0,0,-19,-3
TEXT 0 2448 Left 2 !Pin="Emitter",3,-3,6,15
TEXT 0 2480 Left 2 ![compdef]
TEXT 0 2512 Left 2 !Name=2N3902
SYMBOL diode 1328 -1280 R0
SYMATTR InstName Definition=NPN
SYMATTR Value 
FLAG 1344 -1280 
FLAG 1344 -1216 
SYMBOL sw 1536 -1296 R0
SYMATTR InstName Shape=NPN
SYMATTR Value 
FLAG 1536 -1280 
FLAG 1536 -1200 
FLAG 1488 -1264 
FLAG 1488 -1216 
SYMBOL nmos 1712 -1296 R0
SYMATTR InstName Mask=4224
SYMATTR Value 
FLAG 1760 -1296 
FLAG 1712 -1216 
FLAG 1760 -1200 
SYMBOL urc 0 -1488 R0
SYMATTR InstName Used=3
SYMATTR Value 
FLAG 16 -1472 
FLAG 16 -1408 
FLAG -16 -1440 
SYMBOL nmos 176 -1488 R0
SYMATTR InstName memo=NPN
SYMATTR Value Ic=3.5A Pd=100W
FLAG 224 -1488 High
FLAG 176 -1408 Voltage
FLAG 224 -1392 Transistor
SYMBOL ind 368 -1488 R0
SYMATTR InstName Label
SYMATTR Value 
FLAG 384 -1472 Offset=29,-11,-6,26
FLAG 384 -1392 
TEXT 0 2544 Left 2 !PinCnt=3
TEXT 0 2576 Left 2 !Pin="Collector",3,-3,5,3
TEXT 0 2608 Left 2 !Pin="Base",0,0,-19,-3
TEXT 0 2640 Left 2 !Pin="Emitter",3,3,6,4
TEXT 0 2672 Left 2 !Power=100
TEXT 0 2704 Left 2 ![compdef]
TEXT 0 2736 Left 2 !Name=NPN
SYMBOL diode 560 -1472 R0
SYMATTR InstName Definition=NPN
SYMATTR Value 
FLAG 576 -1472 
FLAG 576 -1408 
SYMBOL sw 768 -1488 R0
SYMATTR InstName Shape=NPN
SYMATTR Value 
FLAG 768 -1472 
FLAG 768 -1392 
FLAG 720 -1456 
FLAG 720 -1408 
SYMBOL nmos 944 -1488 R0
SYMATTR InstName Mask=4097
SYMATTR Value 
FLAG 992 -1488 
FLAG 944 -1408 
FLAG 992 -1392 
SYMBOL nmos 1136 -1488 R0
SYMATTR InstName memo=NPN
SYMATTR Value 
FLAG 1184 -1488 Transistor
FLAG 1136 -1408 
FLAG 1184 -1392 
SYMBOL ind 1328 -1488 R0
SYMATTR InstName Label
SYMATTR Value 
FLAG 1344 -1472 Offset=37,-17,-14,33
FLAG 1344 -1392 
TEXT 0 2768 Left 2 !PinCnt=3
TEXT 0 2800 Left 2 !Pin="Collector",3,-3,4,14
TEXT 0 2832 Left 2 !Pin="Base",0,0,-18,-3
TEXT 0 2864 Left 2 !Pin="Emitter",3,3,5,1
TEXT 0 2896 Left 2 ![compdef]
TEXT 0 2928 Left 2 !Name=Battery
SYMBOL diode 1520 -1472 R0
SYMATTR InstName Definition=Battery
SYMATTR Value 
FLAG 1536 -1472 
FLAG 1536 -1408 
SYMBOL sw 1728 -1488 R0
SYMATTR InstName Shape=Battery
SYMATTR Value 
FLAG 1728 -1472 
FLAG 1728 -1392 
FLAG 1680 -1456 
FLAG 1680 -1408 
SYMBOL nmos -16 -1680 R0
SYMATTR InstName Mask=4865
SYMATTR Value 
FLAG 32 -1680 
FLAG -16 -1600 
FLAG 32 -1584 
SYMBOL nmos 176 -1680 R0
SYMATTR InstName memo=Battery
SYMATTR Value 
FLAG 224 -1680 
FLAG 176 -1600 
FLAG 224 -1584 
SYMBOL ind 368 -1680 R0
SYMATTR InstName Label
SYMATTR Value 
FLAG 384 -1664 Offset=19,7,10,13
FLAG 384 -1584 
TEXT 0 2960 Left 2 !PinCnt=2
TEXT 0 2992 Left 2 !Pin="Plus",6,0,-4,-5
TEXT 0 3024 Left 2 !Pin="Minus",0,0,-10,-5
TEXT 0 3056 Left 2 ![Circuit]
SYMBOL csw 576 -1664 R0
SYMATTR InstName Window
SYMATTR Value -8,-30, 0,0,816,486
FLAG 576 -1664 Placement=2,3,
FLAG 576 -1584 -1,-1,
SYMBOL diode 752 -1664 R0
SYMATTR InstName Default
SYMATTR Value 
FLAG 768 -1664 Object=Color=#000080
FLAG 768 -1600 
SYMBOL diode 944 -1664 R0
SYMATTR InstName Default
SYMATTR Value 
FLAG 960 -1664 Object
FLAG 960 -1600 Font=Height=-15,FStyle=0,Color=#000080,Name=Arial
SYMBOL diode 1136 -1664 R0
SYMATTR InstName Default
SYMATTR Value Border To Text=No
FLAG 1152 -1664 Object
FLAG 1152 -1600 Apply
SYMBOL diode 1328 -1664 R0
SYMATTR InstName Default
SYMATTR Value Fill To Text=No
FLAG 1344 -1664 Object
FLAG 1344 -1600 Apply
SYMBOL csw 1536 -1664 R0
SYMATTR InstName WinBackGround
SYMATTR Value 
FLAG 1536 -1664 Color=#FFFFFF
FLAG 1536 -1584 
SYMBOL sw 1728 -1680 R0
SYMATTR InstName Select
SYMATTR Value 
FLAG 1728 -1664 Color=#FF0000
FLAG 1728 -1584 
FLAG 1680 -1648 
FLAG 1680 -1600 
SYMBOL sw 0 -1872 R0
SYMATTR InstName Select
SYMATTR Value 
FLAG 0 -1856 Box
FLAG 0 -1776 Color=#000080
FLAG -48 -1840 
FLAG -48 -1792 
SYMBOL g 192 -1872 R0
SYMATTR InstName Grid
SYMATTR Value 
FLAG 192 -1776 Text
FLAG 192 -1856 Color=Height=-12,FStyle=0,Color=#FF0000,Name=Verdana
FLAG 144 -1840 
FLAG 144 -1792 
SYMBOL cap 368 -1856 R0
SYMATTR InstName Component
SYMATTR Value 
FLAG 384 -1856 Color=#0000FF
FLAG 384 -1792 
TEXT 0 3088 Left 2 !Attribute Text=Height=-12,FStyle=0,Color=#008000,Name=Verdana
SYMBOL csw 576 -1856 R0
SYMATTR InstName Wire
SYMATTR Value 
FLAG 576 -1856 Color=#008000
FLAG 576 -1776 
TEXT 0 3120 Left 2 !Bus Color=#008000
TEXT 0 3152 Left 2 !Pin Connection=Height=-10,FStyle=0,Color=#FF0000,Name=Arial
TEXT 0 3184 Left 2 !Node Number=Height=-11,FStyle=0,Color=#FF00FF,Name=Arial
TEXT 0 3216 Left 2 !Node Voltage Color=Height=-11,FStyle=0,Color=#000000,Name=Arial
SYMBOL diode 752 -1856 R0
SYMATTR InstName Dynamic
SYMATTR Value Color=#E4E4E4
FLAG 768 -1856 AC
FLAG 768 -1792 Voltage
SYMBOL tline 960 -1824 R0
SYMATTR InstName Text
SYMATTR Value 
FLAG 912 -1840 Banner
FLAG 1008 -1840 Text=Height=-15,FStyle=0,Color=#800000,Name=Arial
FLAG 912 -1808 
FLAG 1008 -1808 
SYMBOL tline 1152 -1824 R0
SYMATTR InstName Title
SYMATTR Value 
FLAG 1104 -1840 Block
FLAG 1200 -1840 Background=#C0C0C0
FLAG 1104 -1808 
FLAG 1200 -1808 
SYMBOL cap 1328 -1856 R0
SYMATTR InstName Current=Height=-11,FStyle=0,Color=#0000FF,Name=Arial
SYMATTR Value 
FLAG 1344 -1856 
FLAG 1344 -1792 
TEXT 0 3248 Left 2 !Power/Condition=Height=-11,FStyle=0,Color=#FF0000,Name=Arial
SYMBOL diode 1520 -1856 R0
SYMATTR InstName Digital
SYMATTR Value 
FLAG 1536 -1856 Path
FLAG 1536 -1792 Color=#FF0000
SYMBOL tline 1728 -1824 R0
SYMATTR InstName Title
SYMATTR Value 
FLAG 1680 -1840 Block=Height=-15,FStyle=0,Color=#000000,Name=Arial
FLAG 1776 -1840 
FLAG 1680 -1808 
FLAG 1776 -1808 
SYMBOL tline 0 -2016 R0
SYMATTR InstName Title
SYMATTR Value 
FLAG -48 -2032 Block
FLAG 48 -2032 Border=#000000
FLAG -48 -2000 
FLAG 48 -2000 
SYMBOL diode 176 -2048 R0
SYMATTR InstName Disabled
SYMATTR Value 
FLAG 192 -2048 Color=#C0C0C0
FLAG 192 -1984 
TEXT 0 3280 Left 2 !KeyWord Color=#0000FF
SYMBOL e 384 -2064 R0
SYMATTR InstName Error
SYMATTR Value 
FLAG 384 -2048 Color=#FF0000
FLAG 384 -1968 
FLAG 336 -2032 
FLAG 336 -1984 
SYMBOL sw 576 -2064 R0
SYMATTR InstName Search
SYMATTR Value 
FLAG 576 -2048 Color=#FFFF00
FLAG 576 -1968 
FLAG 528 -2032 
FLAG 528 -1984 
SYMBOL g 768 -2064 R0
SYMATTR InstName Grid
SYMATTR Value 
FLAG 768 -1968 Color=#000000
FLAG 768 -2048 
FLAG 720 -2032 
FLAG 720 -1984 
SYMBOL diode 944 -2048 R0
SYMATTR InstName Digital
SYMATTR Value 
FLAG 960 -2048 0
FLAG 960 -1984 Color=#000000
SYMBOL diode 1136 -2048 R0
SYMATTR InstName Digital
SYMATTR Value 
FLAG 1152 -2048 R
FLAG 1152 -1984 Color=#FFFF00
SYMBOL diode 1328 -2048 R0
SYMATTR InstName Digital
SYMATTR Value 
FLAG 1344 -2048 F
FLAG 1344 -1984 Color=#FFFF00
SYMBOL diode 1520 -2048 R0
SYMATTR InstName Digital
SYMATTR Value 
FLAG 1536 -2048 1
FLAG 1536 -1984 Color=#FF0000
SYMBOL diode 1712 -2048 R0
SYMATTR InstName Digital
SYMATTR Value 
FLAG 1728 -2048 X
FLAG 1728 -1984 Color=#C0C0C0
SYMBOL diode -16 -2240 R0
SYMATTR InstName Digital
SYMATTR Value 
FLAG 0 -2240 Z
FLAG 0 -2176 Color=#808080
TEXT 0 3312 Left 2 !NodeVoltageFormat=3
TEXT 0 3344 Left 2 !PathDelayFormat=3
SYMBOL csw 192 -2240 R0
SYMATTR InstName WarningFormat=3
SYMATTR Value 
FLAG 192 -2240 
FLAG 192 -2160 
SYMBOL g 384 -2256 R0
SYMATTR InstName GridTextFormulaFormat=3
SYMATTR Value 
FLAG 384 -2160 
FLAG 384 -2240 
FLAG 336 -2224 
FLAG 336 -2176 
SYMBOL csw 576 -2240 R0
SYMATTR InstName Window
SYMATTR Value AC Analysis=2,3, -1,-1, -8,-30, 75,75,1711,638
FLAG 576 -2240 Placement
FLAG 576 -2160 in
SYMBOL csw 768 -2240 R0
SYMATTR InstName Window
SYMATTR Value HmDistortion Analysis=1,2, 160,930, -4,-27, 793,465,1586,930
FLAG 768 -2240 Placement
FLAG 768 -2160 in
SYMBOL csw 960 -2240 R0
SYMATTR InstName Window
SYMATTR Value ImDistortion Analysis=1,2, 0,952, -4,-27, 0,0,816,486
FLAG 960 -2240 Placement
FLAG 960 -2160 in
SYMBOL sw 1152 -2256 R0
SYMATTR InstName SpiceType=AMBIGUOUS
SYMATTR Value 
FLAG 1152 -2240 
FLAG 1152 -2160 
FLAG 1104 -2224 
FLAG 1104 -2176 
TEXT 0 3376 Left 2 !Block Select Color=#51F998
SYMBOL tline 1344 -2208 R0
SYMATTR InstName TitleBlock
SYMATTR Value 
FLAG 1296 -2224 Field_1=$name
FLAG 1392 -2224 
FLAG 1296 -2192 
FLAG 1392 -2192 
SYMBOL tline 1536 -2208 R0
SYMATTR InstName TitleBlock
SYMATTR Value 
FLAG 1488 -2224 Field_2=$user
FLAG 1584 -2224 $company
FLAG 1488 -2192 
FLAG 1584 -2192 
SYMBOL tline 1728 -2208 R0
SYMATTR InstName TitleBlock
SYMATTR Value 
FLAG 1680 -2224 Field_3
FLAG 1776 -2224 
FLAG 1680 -2192 
FLAG 1776 -2192 
SYMBOL tline 0 -2400 R0
SYMATTR InstName TitleBlock
SYMATTR Value 
FLAG -48 -2416 Field_4=$date
FLAG 48 -2416 
FLAG -48 -2384 
FLAG 48 -2384 
SYMBOL tline 192 -2400 R0
SYMATTR InstName TitleBlock
SYMATTR Value 
FLAG 144 -2416 Field_5=Page
FLAG 240 -2416 $page
FLAG 144 -2384 of
FLAG 240 -2384 $maxpage
SYMBOL tline 384 -2400 R0
SYMATTR InstName TitleBlock
SYMATTR Value 
FLAG 336 -2416 One
FLAG 432 -2416 Title=False
FLAG 336 -2384 
FLAG 432 -2384 
SYMBOL tline 576 -2400 R0
SYMATTR InstName Title_Block_Border=False
SYMATTR Value 
FLAG 528 -2416 
FLAG 624 -2416 
FLAG 528 -2384 
FLAG 624 -2384 
SYMBOL tline 768 -2400 R0
SYMATTR InstName Title_Block=False
SYMATTR Value 
FLAG 720 -2416 
FLAG 816 -2416 
FLAG 720 -2384 
FLAG 816 -2384 
SYMBOL sw 960 -2448 R0
SYMATTR InstName Show
SYMATTR Value 
FLAG 960 -2432 Nodes=False
FLAG 960 -2352 
FLAG 912 -2416 
FLAG 912 -2368 
SYMBOL sw 1152 -2448 R0
SYMATTR InstName Show
SYMATTR Value 
FLAG 1152 -2432 Voltages=False
FLAG 1152 -2352 
FLAG 1104 -2416 
FLAG 1104 -2368 
SYMBOL sw 1344 -2448 R0
SYMATTR InstName Show
SYMATTR Value 
FLAG 1344 -2432 Current=False
FLAG 1344 -2352 
FLAG 1296 -2416 
FLAG 1296 -2368 
SYMBOL sw 1536 -2448 R0
SYMATTR InstName Show
SYMATTR Value 
FLAG 1536 -2432 Power=False
FLAG 1536 -2352 
FLAG 1488 -2416 
FLAG 1488 -2368 
SYMBOL sw 1728 -2448 R0
SYMATTR InstName Show
SYMATTR Value 
FLAG 1728 -2432 Condition=False
FLAG 1728 -2352 
FLAG 1680 -2416 
FLAG 1680 -2368 
SYMBOL sw 0 -2640 R0
SYMATTR InstName Show
SYMATTR Value 
FLAG 0 -2624 Pin
FLAG 0 -2544 Connections=False
FLAG -48 -2608 
FLAG -48 -2560 
SYMBOL sw 192 -2640 R0
SYMATTR InstName Show
SYMATTR Value 
FLAG 192 -2624 Cross=False
FLAG 192 -2544 
FLAG 144 -2608 
FLAG 144 -2560 
SYMBOL sw 384 -2640 R0
SYMATTR InstName Show
SYMATTR Value 
FLAG 384 -2624 Attribute
FLAG 384 -2544 Text=True
FLAG 336 -2608 
FLAG 336 -2560 
SYMBOL sw 576 -2640 R0
SYMATTR InstName Show
SYMATTR Value 
FLAG 576 -2624 Grid
FLAG 576 -2544 Text=True
FLAG 528 -2608 
FLAG 528 -2560 
TEXT 0 3408 Left 2 ![Comp]
TEXT 0 3440 Left 2 !Name=Ground
SYMBOL g 768 -2640 R0
SYMATTR InstName Grid=26,11
SYMATTR Value 
FLAG 768 -2544 
FLAG 768 -2624 
FLAG 720 -2608 
FLAG 720 -2560 
SYMBOL res 944 -2640 R0
SYMATTR InstName Rot=1
SYMATTR Value 
FLAG 960 -2624 
FLAG 960 -2544 
TEXT 0 3472 Left 2 ![Comp]
TEXT 0 3504 Left 2 !Name=Ground
SYMBOL g 1152 -2640 R0
SYMATTR InstName Grid=86,12
SYMATTR Value 
FLAG 1152 -2544 
FLAG 1152 -2624 
FLAG 1104 -2608 
FLAG 1104 -2560 
SYMBOL res 1328 -2640 R0
SYMATTR InstName Rot=1
SYMATTR Value 
FLAG 1344 -2624 
FLAG 1344 -2544 
TEXT 0 3536 Left 2 ![Comp]
TEXT 0 3568 Left 2 !Name=Ground
SYMBOL g 1536 -2640 R0
SYMATTR InstName Grid=90,57
SYMATTR Value 
FLAG 1536 -2544 
FLAG 1536 -2624 
FLAG 1488 -2608 
FLAG 1488 -2560 
SYMBOL res 1712 -2640 R0
SYMATTR InstName Rot=1
SYMATTR Value 
FLAG 1728 -2624 
FLAG 1728 -2544 
TEXT 0 3600 Left 2 ![Comp]
TEXT 0 3632 Left 2 !Name=Ground
SYMBOL g 0 -2832 R0
SYMATTR InstName Grid=2,54
SYMATTR Value 
FLAG 0 -2736 
FLAG 0 -2816 
FLAG -48 -2800 
FLAG -48 -2752 
SYMBOL res 176 -2832 R0
SYMATTR InstName Rot=1
SYMATTR Value 
FLAG 192 -2816 
FLAG 192 -2736 
TEXT 0 3664 Left 2 ![Comp]
TEXT 0 3696 Left 2 !Name=Ground
SYMBOL g 384 -2832 R0
SYMATTR InstName Grid=31,68
SYMATTR Value 
FLAG 384 -2736 
FLAG 384 -2816 
FLAG 336 -2800 
FLAG 336 -2752 
SYMBOL res 560 -2832 R0
SYMATTR InstName Rot=1
SYMATTR Value 
FLAG 576 -2816 
FLAG 576 -2736 
TEXT 0 3728 Left 2 ![Wire]
SYMBOL g 768 -2832 R0
SYMATTR InstName Grids=2,42,7,42
SYMATTR Value 
FLAG 768 -2736 
FLAG 768 -2816 
FLAG 720 -2800 
FLAG 720 -2752 
TEXT 0 3760 Left 2 ![Wire]
SYMBOL g 960 -2832 R0
SYMATTR InstName Grids=2,42,2,44
SYMATTR Value 
FLAG 960 -2736 
FLAG 960 -2816 
FLAG 912 -2800 
FLAG 912 -2752 
TEXT 0 3792 Left 2 ![Comp]
TEXT 0 3824 Left 2 !Name=Voltage Source
SYMBOL g 1152 -2832 R0
SYMATTR InstName Grid=2,50
SYMATTR Value 
FLAG 1152 -2736 
FLAG 1152 -2816 
FLAG 1104 -2800 
FLAG 1104 -2752 
SYMBOL res 1328 -2832 R0
SYMATTR InstName Rot=3
SYMATTR Value 
FLAG 1344 -2816 
FLAG 1344 -2736 
TEXT 0 3856 Left 2 ![Attr]
SYMBOL ltline 1536 -2784 R0
SYMATTR InstName ON=17,-4,PART
SYMATTR Value 
FLAG 1488 -2800 
FLAG 1584 -2800 
FLAG 1488 -2768 
FLAG 1584 -2768 
SYMBOL voltage 1728 -2832 R0
SYMATTR InstName V=V1
SYMATTR Value 
FLAG 1728 -2816 
FLAG 1728 -2736 
SYMBOL sw 0 -3024 R0
SYMATTR InstName Style=8192
SYMATTR Value 
FLAG 0 -3008 
FLAG 0 -2928 
FLAG -48 -2992 
FLAG -48 -2944 
SYMBOL h 192 -3024 R0
SYMATTR InstName Height=-16
SYMATTR Value 
FLAG 192 -3008 
FLAG 192 -2928 
SYMBOL cap 368 -3008 R0
SYMATTR InstName Color=#0000FF
SYMATTR Value 
FLAG 384 -3008 
FLAG 384 -2944 
SYMBOL f 576 -3008 R0
SYMATTR InstName Font=Century
SYMATTR Value 
FLAG 576 -3008 Gothic
FLAG 576 -2928 
TEXT 0 3888 Left 2 ![Attr]
SYMBOL ltline 768 -2976 R0
SYMATTR InstName ON=-16,-41,VALUE
SYMATTR Value 
FLAG 720 -2992 
FLAG 816 -2992 
FLAG 720 -2960 
FLAG 816 -2960 
SYMBOL voltage 960 -3024 R0
SYMATTR InstName V=DC
SYMATTR Value 1 0 Sin 0 1 20k 0 0 0
FLAG 960 -3008 0
FLAG 960 -2928 AC
SYMBOL h 1152 -3024 R0
SYMATTR InstName Height=-16
SYMATTR Value 
FLAG 1152 -3008 
FLAG 1152 -2928 
SYMBOL cap 1328 -3008 R0
SYMATTR InstName Color=#0000FF
SYMATTR Value 
FLAG 1344 -3008 
FLAG 1344 -2944 
SYMBOL f 1536 -3008 R0
SYMATTR InstName Font=Century
SYMATTR Value 
FLAG 1536 -3008 Gothic
FLAG 1536 -2928 
TEXT 0 3920 Left 2 ![Attr]
SYMBOL ltline 1728 -2976 R0
SYMATTR InstName ON=0,22,COST
SYMATTR Value 
FLAG 1680 -2992 
FLAG 1776 -2992 
FLAG 1680 -2960 
FLAG 1776 -2960 
SYMBOL voltage 0 -3216 R0
SYMATTR InstName V
SYMATTR Value 
FLAG 0 -3200 
FLAG 0 -3120 
SYMBOL h 192 -3216 R0
SYMATTR InstName Height=-16
SYMATTR Value 
FLAG 192 -3200 
FLAG 192 -3120 
SYMBOL cap 368 -3200 R0
SYMATTR InstName Color=#0000FF
SYMATTR Value 
FLAG 384 -3200 
FLAG 384 -3136 
SYMBOL f 576 -3200 R0
SYMATTR InstName Font=Century
SYMATTR Value 
FLAG 576 -3200 Gothic
FLAG 576 -3120 
TEXT 0 3952 Left 2 ![Attr]
SYMBOL ltline 768 -3168 R0
SYMATTR InstName ON=0,33,POWER
SYMATTR Value 
FLAG 720 -3184 
FLAG 816 -3184 
FLAG 720 -3152 
FLAG 816 -3152 
SYMBOL voltage 960 -3216 R0
SYMATTR InstName V
SYMATTR Value 
FLAG 960 -3200 
FLAG 960 -3120 
SYMBOL h 1152 -3216 R0
SYMATTR InstName Height=-16
SYMATTR Value 
FLAG 1152 -3200 
FLAG 1152 -3120 
SYMBOL cap 1328 -3200 R0
SYMATTR InstName Color=#0000FF
SYMATTR Value 
FLAG 1344 -3200 
FLAG 1344 -3136 
SYMBOL f 1536 -3200 R0
SYMATTR InstName Font=Century
SYMATTR Value 
FLAG 1536 -3200 Gothic
FLAG 1536 -3120 
TEXT 0 3984 Left 2 ![Attr]
SYMBOL ltline 1728 -3168 R0
SYMATTR InstName ON=0,0,Saved_Pulse
SYMATTR Value 
FLAG 1680 -3184 
FLAG 1776 -3184 
FLAG 1680 -3152 
FLAG 1776 -3152 
SYMBOL voltage 0 -3408 R0
SYMATTR InstName V=DC
SYMATTR Value 1 0 Pulse 0 5 100n 10n 10n 400n 1u
FLAG 0 -3392 0
FLAG 0 -3312 AC
SYMBOL sw 192 -3408 R0
SYMATTR InstName Style=256
SYMATTR Value 
FLAG 192 -3392 
FLAG 192 -3312 
FLAG 144 -3376 
FLAG 144 -3328 
SYMBOL h 384 -3408 R0
SYMATTR InstName Height=-16
SYMATTR Value 
FLAG 384 -3392 
FLAG 384 -3312 
SYMBOL cap 560 -3392 R0
SYMATTR InstName Color=#0000FF
SYMATTR Value 
FLAG 576 -3392 
FLAG 576 -3328 
SYMBOL f 768 -3392 R0
SYMATTR InstName Font=Century
SYMATTR Value 
FLAG 768 -3392 Gothic
FLAG 768 -3312 
TEXT 0 4016 Left 2 ![Attr]
SYMBOL ltline 960 -3360 R0
SYMATTR InstName ON=0,0,Saved_Sin
SYMATTR Value 
FLAG 912 -3376 
FLAG 1008 -3376 
FLAG 912 -3344 
FLAG 1008 -3344 
SYMBOL voltage 1152 -3408 R0
SYMATTR InstName V=DC
SYMATTR Value 1 0 Sin 0 1 20k 0 0 0
FLAG 1152 -3392 0
FLAG 1152 -3312 AC
SYMBOL sw 1344 -3408 R0
SYMATTR InstName Style=256
SYMATTR Value 
FLAG 1344 -3392 
FLAG 1344 -3312 
FLAG 1296 -3376 
FLAG 1296 -3328 
SYMBOL h 1536 -3408 R0
SYMATTR InstName Height=-16
SYMATTR Value 
FLAG 1536 -3392 
FLAG 1536 -3312 
SYMBOL cap 1712 -3392 R0
SYMATTR InstName Color=#0000FF
SYMATTR Value 
FLAG 1728 -3392 
FLAG 1728 -3328 
SYMBOL f 0 -3584 R0
SYMATTR InstName Font=Century
SYMATTR Value 
FLAG 0 -3584 Gothic
FLAG 0 -3504 
TEXT 0 4048 Left 2 ![Wire]
SYMBOL g 192 -3600 R0
SYMATTR InstName Grids=2,50,2,54
SYMATTR Value 
FLAG 192 -3504 
FLAG 192 -3584 
FLAG 144 -3568 
FLAG 144 -3520 
TEXT 0 4080 Left 2 ![Comp]
TEXT 0 4112 Left 2 !Name=Capacitor
SYMBOL g 384 -3600 R0
SYMATTR InstName Grid=7,42
SYMATTR Value 
FLAG 384 -3504 
FLAG 384 -3584 
FLAG 336 -3568 
FLAG 336 -3520 
TEXT 0 4144 Left 2 ![Attr]
SYMBOL ltline 576 -3552 R0
SYMATTR InstName ON=17,-34,PART
SYMATTR Value 
FLAG 528 -3568 
FLAG 624 -3568 
FLAG 528 -3536 
FLAG 624 -3536 
SYMBOL voltage 768 -3600 R0
SYMATTR InstName V=C1
SYMATTR Value 
FLAG 768 -3584 
FLAG 768 -3504 
SYMBOL sw 960 -3600 R0
SYMATTR InstName Style=8192
SYMATTR Value 
FLAG 960 -3584 
FLAG 960 -3504 
FLAG 912 -3568 
FLAG 912 -3520 
SYMBOL h 1152 -3600 R0
SYMATTR InstName Height=-16
SYMATTR Value 
FLAG 1152 -3584 
FLAG 1152 -3504 
SYMBOL cap 1328 -3584 R0
SYMATTR InstName Color=#0000FF
SYMATTR Value 
FLAG 1344 -3584 
FLAG 1344 -3520 
SYMBOL f 1536 -3584 R0
SYMATTR InstName Font=Century
SYMATTR Value 
FLAG 1536 -3584 Gothic
FLAG 1536 -3504 
TEXT 0 4176 Left 2 ![Attr]
SYMBOL ltline 1728 -3552 R0
SYMATTR InstName ON=10,12,CAPACITANCE
SYMATTR Value 
FLAG 1680 -3568 
FLAG 1776 -3568 
FLAG 1680 -3536 
FLAG 1776 -3536 
SYMBOL voltage 0 -3792 R0
SYMATTR InstName V=500n
SYMATTR Value 
FLAG 0 -3776 
FLAG 0 -3696 
SYMBOL sw 192 -3792 R0
SYMATTR InstName Style=8192
SYMATTR Value 
FLAG 192 -3776 
FLAG 192 -3696 
FLAG 144 -3760 
FLAG 144 -3712 
SYMBOL h 384 -3792 R0
SYMATTR InstName Height=-16
SYMATTR Value 
FLAG 384 -3776 
FLAG 384 -3696 
SYMBOL cap 560 -3776 R0
SYMATTR InstName Color=#0000FF
SYMATTR Value 
FLAG 576 -3776 
FLAG 576 -3712 
SYMBOL f 768 -3776 R0
SYMATTR InstName Font=Century
SYMATTR Value 
FLAG 768 -3776 Gothic
FLAG 768 -3696 
TEXT 0 4208 Left 2 ![Attr]
SYMBOL ltline 960 -3744 R0
SYMATTR InstName ON=0,22,CHARGE
SYMATTR Value 
FLAG 912 -3760 
FLAG 1008 -3760 
FLAG 912 -3728 
FLAG 1008 -3728 
SYMBOL voltage 1152 -3792 R0
SYMATTR InstName V
SYMATTR Value 
FLAG 1152 -3776 
FLAG 1152 -3696 
SYMBOL h 1344 -3792 R0
SYMATTR InstName Height=-16
SYMATTR Value 
FLAG 1344 -3776 
FLAG 1344 -3696 
SYMBOL cap 1520 -3776 R0
SYMATTR InstName Color=#0000FF
SYMATTR Value 
FLAG 1536 -3776 
FLAG 1536 -3712 
SYMBOL f 1728 -3776 R0
SYMATTR InstName Font=Century
SYMATTR Value 
FLAG 1728 -3776 Gothic
FLAG 1728 -3696 
TEXT 0 4240 Left 2 ![Attr]
SYMBOL ltline 0 -3936 R0
SYMATTR InstName ON=0,33,FREQ
SYMATTR Value 
FLAG -48 -3952 
FLAG 48 -3952 
FLAG -48 -3920 
FLAG 48 -3920 
SYMBOL voltage 192 -3984 R0
SYMATTR InstName V
SYMATTR Value 