Version 4
SHEET 1 880 680
WIRE 336 -96 192 -96
WIRE 480 -96 336 -96
WIRE 192 -80 192 -96
WIRE 480 -80 480 -96
WIRE 336 -32 336 -96
WIRE 192 16 192 0
WIRE 272 16 192 16
WIRE 192 64 192 16
WIRE 48 144 32 144
WIRE 192 144 192 128
WIRE 192 144 48 144
WIRE 368 144 336 144
WIRE 480 144 480 0
WIRE 512 144 480 144
WIRE 32 160 32 144
WIRE 192 160 192 144
WIRE 512 160 512 144
WIRE 32 256 32 240
WIRE 192 272 192 224
WIRE 272 272 192 272
WIRE 480 272 480 144
WIRE 192 288 192 272
WIRE 192 384 192 368
WIRE 336 384 336 320
WIRE 336 384 192 384
WIRE 480 384 480 352
WIRE 480 384 336 384
FLAG 32 256 0
FLAG 48 144 Sine
FLAG 512 160 0
SYMBOL voltage 32 144 R0
WINDOW 123 0 0 Left 2
WINDOW 39 0 0 Left 2
SYMATTR InstName V1
SYMATTR Value SINE(0 1 1)
SYMBOL diode 176 64 R0
SYMATTR InstName D1
SYMATTR Value 1N4148
SYMBOL diode 176 160 R0
SYMATTR InstName D2
SYMATTR Value 1N4148
SYMBOL res 176 -96 R0
SYMATTR InstName R1
SYMATTR Value 1k
SYMBOL res 176 272 R0
SYMATTR InstName R2
SYMATTR Value 1k
SYMBOL voltage 480 -96 R0
WINDOW 123 0 0 Left 2
WINDOW 39 0 0 Left 2
SYMATTR InstName V2
SYMATTR Value 5v
SYMBOL voltage 480 256 R0
WINDOW 123 0 0 Left 2
WINDOW 39 0 0 Left 2
SYMATTR InstName V3
SYMATTR Value 5v
SYMBOL pnp 272 320 M180
WINDOW 0 40 59 Left 2
WINDOW 3 42 34 Left 2
SYMATTR InstName Q1
SYMBOL npn 272 -32 R0
WINDOW 0 42 30 Left 2
WINDOW 3 41 56 Left 2
SYMATTR InstName Q2
SYMATTR Value BC547B
SYMBOL res 320 48 R0
SYMATTR InstName R3
SYMATTR Value 1k
SYMBOL res 320 128 R0
SYMATTR InstName R4
SYMATTR Value 1k
TEXT 8 312 Left 2 !.tran 5
