Version 4
SHEET 1 880 680
WIRE 272 -256 160 -256
WIRE 160 -80 160 -256
WIRE 160 -80 48 -80
WIRE 224 -80 160 -80
WIRE 224 -64 224 -80
WIRE 48 -16 48 -80
WIRE 224 32 224 16
WIRE 368 32 224 32
WIRE 480 32 432 32
WIRE 224 64 224 32
WIRE -128 112 -256 112
WIRE 48 112 48 64
WIRE 48 112 -64 112
WIRE 160 112 48 112
WIRE 176 112 160 112
WIRE 48 144 48 112
WIRE -256 176 -256 112
WIRE 224 192 224 160
WIRE 336 192 224 192
WIRE 480 192 480 32
WIRE 224 208 224 192
WIRE 336 224 336 192
WIRE 48 352 48 224
WIRE 144 352 48 352
WIRE 224 352 224 288
WIRE 224 352 144 352
WIRE 336 352 336 288
WIRE 336 352 224 352
WIRE 480 352 480 272
WIRE 480 352 336 352
FLAG 272 -176 0
FLAG 144 352 0
FLAG -256 256 0
SYMBOL npn 160 64 R0
SYMATTR InstName Q1
SYMATTR Value BD243A
SYMBOL voltage 272 -272 R0
WINDOW 123 0 0 Left 2
WINDOW 39 0 0 Left 2
SYMATTR InstName V1
SYMATTR Value 27
SYMBOL res 32 -32 R0
SYMATTR InstName R4
SYMATTR Value 100K
SYMBOL res 32 128 R0
SYMATTR InstName R3
SYMATTR Value 100K
SYMBOL res 208 192 R0
SYMATTR InstName R2
SYMATTR Value 100
SYMBOL cap 320 224 R0
SYMATTR InstName C3
SYMATTR Value 1000µ
SYMBOL cap 432 16 R90
WINDOW 0 0 32 VBottom 2
WINDOW 3 -59 95 VTop 2
SYMATTR InstName C2
SYMATTR Value 100µ
SYMBOL voltage -256 160 R0
WINDOW 123 0 0 Left 2
WINDOW 39 0 0 Left 2
SYMATTR InstName V2
SYMATTR Value SINE(0 10mV 2000)
SYMBOL cap -64 96 R90
WINDOW 0 0 32 VBottom 2
WINDOW 3 32 32 VTop 2
SYMATTR InstName C1
SYMATTR Value 1000µ
SYMBOL res 208 -80 R0
SYMATTR InstName R1
SYMATTR Value 1K
TEXT -520 96 Left 2 !.tran 0 1s 0 1ms
