Version 4
SHEET 1 1788 680
WIRE 336 -656 128 -656
WIRE 768 -656 336 -656
WIRE 128 -608 128 -656
WIRE 128 -608 48 -608
WIRE 224 -608 128 -608
WIRE 48 -592 48 -608
WIRE 48 -592 -16 -592
WIRE 48 -544 48 -592
WIRE 224 -464 224 -528
WIRE 48 -416 48 -464
WIRE 160 -416 48 -416
WIRE 176 -416 160 -416
WIRE 48 -384 48 -416
WIRE 768 -256 768 -656
WIRE 768 -256 480 -256
WIRE 48 -176 48 -304
WIRE 144 -176 48 -176
WIRE 224 -128 224 -368
WIRE 416 -128 224 -128
WIRE -16 -80 -16 -592
WIRE -16 -80 -48 -80
WIRE 48 -80 -16 -80
WIRE -48 -64 -48 -80
WIRE 48 -16 48 -80
WIRE 480 -16 480 -256
WIRE 768 -16 768 -256
WIRE 416 32 416 -128
WIRE 624 32 592 32
WIRE 704 32 624 32
WIRE 720 32 704 32
WIRE 224 64 224 -128
WIRE 768 96 768 80
WIRE 832 96 768 96
WIRE -256 112 -336 112
WIRE -128 112 -256 112
WIRE -112 112 -112 96
WIRE -112 112 -128 112
WIRE 48 112 48 64
WIRE 48 112 -64 112
WIRE 160 112 48 112
WIRE 176 112 160 112
WIRE 768 112 768 96
WIRE 480 128 480 80
WIRE 592 128 592 32
WIRE 592 128 480 128
WIRE 48 144 48 112
WIRE 832 144 832 96
WIRE 864 144 832 144
WIRE 880 144 864 144
WIRE 1024 144 928 144
WIRE 624 160 624 112
WIRE 704 160 624 160
WIRE 720 160 704 160
WIRE -256 176 -256 112
WIRE 624 192 624 160
WIRE 1024 192 1024 144
WIRE 224 208 224 160
WIRE 304 224 304 176
WIRE -336 256 -336 224
WIRE -256 256 -336 256
WIRE 48 352 48 224
WIRE 144 352 48 352
WIRE 224 352 224 288
WIRE 224 352 144 352
WIRE 624 352 624 272
WIRE 624 352 224 352
WIRE 720 352 624 352
WIRE 768 352 768 208
WIRE 768 352 720 352
WIRE 1024 352 1024 272
WIRE 1024 352 768 352
WIRE 48 368 48 352
WIRE 48 368 -48 368
WIRE -208 416 -208 368
WIRE 944 416 -208 416
FLAG 336 -576 0
FLAG 144 352 0
FLAG -256 256 0
FLAG 720 352 0
FLAG -48 0 0
FLAG 144 -176 0
SYMBOL npn 160 64 R0
WINDOW 3 -214 -289 Left 2
SYMATTR Value BC549C
SYMATTR InstName Q1
SYMBOL voltage 336 -672 R0
WINDOW 123 0 0 Left 2
WINDOW 39 0 0 Left 2
SYMATTR InstName V1
SYMATTR Value 27
SYMBOL res 32 -32 R0
SYMATTR InstName R4
SYMATTR Value 33K
SYMBOL res 32 128 R0
SYMATTR InstName R3
SYMATTR Value 33K
SYMBOL cap -64 96 R90
WINDOW 0 0 32 VBottom 2
WINDOW 3 32 32 VTop 2
SYMATTR InstName C1
SYMATTR Value 10000µ
SYMBOL voltage -256 160 R0
WINDOW 123 24 44 Left 2
WINDOW 39 24 72 Left 2
WINDOW 3 -396 78 Left 2
SYMATTR Value2 AC 100mv
SYMATTR SpiceLine Rser=0
SYMATTR Value SINE(0 20mV 200)
SYMATTR InstName V2
SYMBOL res -112 352 R90
WINDOW 0 0 56 VBottom 2
WINDOW 3 32 56 VTop 2
SYMATTR InstName RF
SYMATTR Value 1250
SYMBOL res -32 352 R90
WINDOW 0 0 56 VBottom 2
WINDOW 3 32 56 VTop 2
SYMATTR InstName RI
SYMATTR Value 3750
SYMBOL npn2 704 -16 R0
SYMATTR InstName Q4
SYMATTR Value 2N3055
SYMBOL res 1008 176 R0
SYMATTR InstName R11
SYMATTR Value 8
SYMBOL pnp 704 208 M180
SYMATTR InstName Q5
SYMATTR Value 2N2907S
SYMBOL cap 928 128 R90
WINDOW 0 0 32 VBottom 2
WINDOW 3 32 32 VTop 2
SYMATTR InstName C20
SYMATTR Value 2200µ
SYMBOL res 608 176 R0
SYMATTR InstName R5
SYMATTR Value 1K
SYMBOL res 608 16 R0
SYMATTR InstName R7
SYMATTR Value 177
SYMBOL cap -64 -64 R0
WINDOW 0 -119 4 Left 2
SYMATTR InstName C-Cleaner
SYMATTR Value 10µ
SYMBOL npn 416 -16 R0
SYMATTR InstName Q2
SYMATTR Value MJE12007
SYMBOL cap -352 160 R0
WINDOW 0 -293 6 Left 2
SYMATTR InstName C2-cleans-noise-in-input
SYMATTR Value 800n
SYMBOL res 32 -560 R0
SYMATTR InstName R9
SYMATTR Value 1000
SYMBOL res 32 -400 R0
SYMATTR InstName R10
SYMATTR Value 10K
SYMBOL res 208 -624 R0
SYMATTR InstName R1
SYMATTR Value 100
SYMBOL res 208 192 R0
SYMATTR InstName R2
SYMATTR Value 0
SYMBOL npn 160 -464 R0
WINDOW 3 -214 -289 Left 2
SYMATTR Value BC549C
SYMATTR InstName Q3
TEXT -640 120 Left 2 !.tran 0 50ms 1ms 1ms
TEXT 120 448 Left 2 ;Here feedback does help !!!
