Version 4
SHEET 1 1128 680
WIRE 272 -256 144 -256
WIRE 608 -256 272 -256
WIRE 816 -256 608 -256
WIRE 128 -80 48 -80
WIRE 144 -80 144 -256
WIRE 144 -80 128 -80
WIRE 224 -80 144 -80
WIRE 48 -16 48 -80
WIRE 128 48 128 -80
WIRE 224 64 224 0
WIRE 608 80 608 -256
WIRE 816 80 816 -256
WIRE -128 112 -256 112
WIRE 48 112 48 64
WIRE 48 112 -16 112
WIRE 128 112 48 112
WIRE 160 112 128 112
WIRE 176 112 160 112
WIRE 368 128 368 32
WIRE 544 128 368 128
WIRE 560 128 544 128
WIRE 768 128 752 128
WIRE 48 144 48 112
WIRE -256 176 -256 112
WIRE 224 192 224 160
WIRE 336 192 224 192
WIRE -16 208 -16 112
WIRE 224 208 224 192
WIRE 608 208 608 176
WIRE 752 208 752 128
WIRE 752 208 608 208
WIRE 816 208 816 176
WIRE 864 208 816 208
WIRE 896 208 864 208
WIRE 992 208 960 208
WIRE 1072 208 992 208
WIRE 336 224 336 192
WIRE 992 240 992 208
WIRE -16 352 -16 272
WIRE 48 352 48 224
WIRE 48 352 -16 352
WIRE 144 352 48 352
WIRE 224 352 224 288
WIRE 224 352 144 352
WIRE 336 352 336 288
WIRE 336 352 224 352
WIRE 864 352 864 288
WIRE 864 352 336 352
WIRE 992 352 992 304
WIRE 992 352 864 352
WIRE 1072 352 1072 288
WIRE 1072 352 992 352
WIRE -16 368 -16 352
WIRE 48 368 48 352
FLAG 272 -176 0
FLAG 144 352 0
FLAG -256 256 0
SYMBOL npn 160 64 R0
SYMATTR InstName Q1
SYMATTR Value BC549C
SYMBOL res 208 -96 R0
SYMATTR InstName R1
SYMATTR Value 600
SYMBOL voltage 272 -272 R0
WINDOW 123 0 0 Left 2
WINDOW 39 0 0 Left 2
SYMATTR InstName V1
SYMATTR Value 15
SYMBOL res 32 -32 R0
SYMATTR InstName R4
SYMATTR Value 10K
SYMBOL res 32 128 R0
SYMATTR InstName R3
SYMATTR Value 3000
SYMBOL res 208 192 R0
SYMATTR InstName R2
SYMATTR Value 220
SYMBOL cap 320 224 R0
SYMATTR InstName C3
SYMATTR Value 1000µ
SYMBOL cap -64 96 R90
WINDOW 0 0 32 VBottom 2
WINDOW 3 32 32 VTop 2
SYMATTR InstName C1
SYMATTR Value 1000µ
SYMBOL voltage -256 160 R0
WINDOW 123 24 44 Left 2
WINDOW 39 0 0 Left 2
WINDOW 3 24 72 Left 2
SYMATTR Value2 AC 15mv
SYMATTR Value SINE(0 15mV 1000)
SYMATTR InstName V2
SYMBOL npn 544 80 R0
SYMATTR InstName Used_TIP122
SYMATTR Value TIP41C
SYMBOL res 848 192 R0
WINDOW 3 35 76 Left 2
SYMATTR Value 15
SYMATTR InstName R7
SYMBOL cap 112 48 R0
SYMATTR InstName C4
SYMATTR Value 220p
SYMBOL cap -32 208 R0
SYMATTR InstName C5
SYMATTR Value 800n
SYMBOL npn 752 80 R0
SYMATTR InstName Used_TIP1
SYMATTR Value TIP41C
SYMBOL res 1056 192 R0
WINDOW 3 35 76 Left 2
SYMATTR Value 6
SYMATTR InstName R8
SYMBOL cap 960 192 R90
WINDOW 0 0 32 VBottom 2
WINDOW 3 32 32 VTop 2
SYMATTR InstName C6
SYMATTR Value 2200µ
SYMBOL cap 976 240 R0
SYMATTR InstName C2
SYMATTR Value 200nf
TEXT -520 96 Left 2 !.tran 0 100ms 1ms 1ms
