Version 4
SHEET 1 880 680
WIRE 464 96 240 96
WIRE 240 144 240 96
WIRE 176 192 16 192
WIRE 16 288 16 272
WIRE 240 288 240 240
WIRE 240 288 16 288
WIRE 464 288 464 176
WIRE 464 288 240 288
FLAG 240 288 0
SYMBOL npn 176 144 R0
SYMATTR InstName Q1
SYMATTR Value 2N2222
SYMBOL voltage 464 80 R0
WINDOW 123 0 0 Left 2
WINDOW 39 0 0 Left 2
SYMATTR InstName V1
SYMATTR Value 15V
SYMBOL current 16 272 R180
WINDOW 123 0 0 Left 2
WINDOW 39 0 0 Left 2
SYMATTR InstName I1
SYMATTR Value 10m
TEXT 72 32 Left 2 !.dc V1 0 15V .1V I1 10u 200u 10u
